14
13_CHD_S0min - input geometry
C       -2.08825816       0.63746576       0.01651093
C       -3.38937329       0.28371698      -0.65962259
C       -3.38646623       0.68129057      -2.13866677
C       -2.08513412       0.32150602      -2.81120435
H       -2.08199026       0.12317450      -3.88598326
C       -0.93977347       0.31982162      -2.11337064
H        0.01226994       0.10699079      -2.60475620
C       -0.94099149       0.63381505      -0.67817274
H        0.01071376       0.84201754      -0.18415720
H       -2.08717183       0.83573177       1.09130531
H       -4.23999559       0.75311684      -0.14330294
H       -3.53869279      -0.81057636      -0.56823848
H       -4.23778870       0.21564121      -2.65722936
H       -3.53061948       1.77623451      -2.23051950
